{"titles": ["Circulating MicroRNAs, miR\u201021, miR\u2010122, and miR\u2010223, in patients with hepatocellular carcinoma or chronic hepatitis", "Topic modeling with network regularization", "Mining advisor-advisee relationships from research publication networks", "Social network extraction of academic researchers", "A combination approach to web user profiling", "Topic cube: Topic modeling for olap on multidimensional text databases", "Result of Ontology Alignment with RiMOM at OAEI'06.", "A general optimization framework for smoothing language models on graph structures", "Novel cost-sensitive approach to improve the multilayer perceptron performance on imbalanced data", "Genome-wide association studies identify several new loci associated with pigmentation traits and skin cancer risk in European Americans", "On the classical limit in atom-surface diffraction", "Risk of Genome-Wide Association Study\u2013Identified Genetic Variants for Colorectal Cancer in a Chinese Population", "Cross-lingual latent topic extraction", "Evaluation of dry sliding wear behavior of silicon particles reinforced aluminum matrix composites", "Genome-wide interrogation identifies YAP1 variants associated with survival of small-cell lung cancer patients", "ArnetMiner: An Expertise Oriented Search System for Web Community.", "PGC-1 coactivators regulate MITF and the tanning response", "Web service annotation using ontology mapping", "Topic modeling for OLAP on multidimensional text databases: topic cube and its applications", "A constraint-based probabilistic framework for name disambiguation", "Genome-wide association study identifies nidogen 1 (             ", "Multiplicity analysis in reactive distillation column using ASPEN PLUS", "\u9f0e\u6e56\u5c71\u9178\u6c89\u964d\u80cc\u666f\u4e0b\u4e3b\u8981\u68ee\u6797\u7c7b\u578b\u6c34\u5316\u5b66\u7279\u5f81\u521d\u6b65\u7814\u7a76", "Cross-linked multiblock copoly (arylene ether sulfone) ionomer/nano-ZrO 2 composite anion exchange membranes for alkaline fuel cells", "Evidence of associations of ", "A germline variant in the interferon regulatory factor 4 gene as a novel skin cancer risk locus", "\u9f0e\u6e56\u5c71 3 \u79cd\u6f14\u66ff\u7fa4\u843d\u51cb\u843d\u7269\u53ca\u5176\u6c34\u5206\u7279\u5f81\u5bf9\u6bd4\u7814\u7a76", "Information extraction: Methodologies and applications", "Structural topic model for latent topical structure analysis", "\u6c5f\u897f\u51b7\u6c34\u5751 Ag-Pb-Zn \u77ff\u7530\u78b3, \u6c27, \u786b, \u94c5\u540c\u4f4d\u7d20\u7279\u5f81\u53ca\u6210\u77ff\u7269\u8d28\u6765\u6e90", "Simultaneous determination of aconite alkaloids and ginsenosides using online solid phase extraction hyphenated with polarity switching ultra-high performance liquid\u00a0\u2026", "iNextCube: Information network-enhanced text cube", "Force constants and fundamental frequencies of the fare earth trihalide molecules", "\u9f0e\u6e56\u5c71\u9488\u9614\u53f6\u6df7\u4ea4\u6797\u4f18\u52bf\u79cd\u6811\u5e72\u6db2\u6d41\u7279\u5f81\u53ca\u5176\u4e0e\u73af\u5883\u56e0\u5b50\u7684\u5173\u7cfb", "Eventcube: multi-dimensional search and mining of structured and text data", "Finding keyword from online broadcasting content for targeted advertising", "Three Steps Method\" to compute unsteady flow for river networks", "Enhanced CH4 recovery and CO2 storage via thermal stimulation in the CH4/CO2 replacement of methane hydrate", "Petrogenesis of late Carboniferous to early Permian granitoid plutons in the Chinese South Tianshan: implications for crustal accretion", "Introduction: Fairy tales to digital games: the rising tide of entertainment education", "MiTexCube: MicroTextCluster Cube for Online Analysis of Text Cells.", "\u5927\u578b\u8f6c\u7089\u7164\u6c14\u5e72\u6cd5\u9664\u5c18\u6280\u672f\u7814\u7a76\u4e0e\u5e94\u7528", "Experimental Study of Conditions for Methane Hydrate Productivity by the CO", "\u5317\u6b66\u5937\u7bc1\u78a7\u77ff\u533a\u9006\u51b2\u63a8\u8986\u6784\u9020\u53ca\u5176\u4e0e\u94bc, \u94c5-\u950c\u6210\u77ff\u4f5c\u7528\u5173\u7cfb", "Variation of carbohydrates and macronutrients during the flowering stage in canola ('Brasscia napus' L.) plants with contrasting seed oil content", "Cytokine BAFF gene variation is associated with survival of patients with T-cell lymphoma", "Magnetic resonance imaging for in-situ observation of the effect of depressurizing range and rate on methane hydrate dissociation", "\u6d53\u5ea6\u5347\u9ad8\u548c\u6c2e\u6c89\u964d\u5bf9\u5357\u4e9a\u70ed\u5e26\u4e3b\u8981\u4e61\u571f\u6811\u79cd\u53ca\u7fa4\u843d\u751f\u7269\u91cf\u7684\u5f71\u54cd", "Price decision models for closed-loop supply chain under uncertain demand", "A unified framework for name disambiguation", "Study on the relation between the dielectric properties and lattice distortions in PZT ferroelectric tetragonal phase region", "Formation of disinfection byproducts in a recirculating mariculture system: emerging concerns", "Characteristics of soil-vegetable pollution of heavy metals and health risk assessment in Daye mining area", "Analyzing parallel topics from correlated documents", "School of Economics and Management, North University of China; School of Mechanical engineering and Automation, North University of China;; Differential Pricing Strategy of\u00a0\u2026", "A new algorithm for minimum spanning tree", "\u57fa\u4e8e TEI@ I \u65b9\u6cd5\u8bba\u7684\u901a\u8d27\u81a8\u80c0\u95ee\u9898\u5206\u6790\u4e0e\u9884\u6d4b", "Diagnosis, Prevalence, and Prevention of the Spread of the Parasite Heterosporis Sp.(Microsporida: Pleistophoridae) in Yellow Perch (Perca Flavescens) and Other Freshwater Fish\u00a0\u2026", "Maximum entropy based normalization of word posteriors for phonetic and lvcsr lattice search", "Robust and non-fragile H\u221e control for a class of uncertain jump linear systems", "Result of Ontology Alignment with RiMOM at OAEI 2006", "MiTexCube: MicroTextCluster Cube for online analysis of text cells and its applications", "Oral captopril versus placebo among 13,364 patients with suspected acute myocardial infarction: interim report from the Chinese Cardiac Study (CCS-1)", "Combined replacement and depressurization methane hydrate recovery method", "Design and control on antagonistic bionic joint driven by pneumatic muscles actuators", "Association between genetic variations in tumor necrosis factor receptor genes and survival of patients with T-cell lymphoma", "Automatic Semantic Annotation Using Machine Learning", "PTM: probabilistic topic mapping model for mining parallel document collections", "Compact Threshold Voltage Model for FinFETs", "\u7528\u6539\u8fdb\u7684 ART-2 \u7f51\u7edc\u5efa\u7acb\u79fb\u52a8\u673a\u5668\u4eba\u73af\u5883\u6a21\u578b\u7684\u7814\u7a76", "Integrative text mining and management in multidimensional text databases", "* Toward Strategy Selection for Ontology Alignment", "Stability of bright screening-photovoltaic spatial solitons", "Pricing strategy of considering retailer's fairness concerns in the closed-loop supply chain [J]", "A rapid and accurate PCR method for homozygous lines screening for genetically modified rice containing Cry1Ab", "Low-frequency electromagnetic radiation field interaction with cerebral nervous MT", "Robust Stability for a Class of Uncertain Hybrid Linear Systems with Time-Delay", "Progress in surface plasmon subwavelength optics", "Isolated sub-50 as pulse generation in the combined mid-infrared laser field", "\u9f9a\u5634\u6c34\u7535\u7ad9 9 \u53f7\u6ea2\u6d2a\u9053\u5de5\u4f5c\u95e8\u9ad8\u6c34\u4f4d\u542f\u95ed\u95ee\u9898\u63a2\u8ba8", "Information Extraction", "Study on Differential Price Coordination of Closed-loop Supply Chain Based on Game Theory", "Document production in the field of textile in colleges and universities of China", "Syntheses and Characterizations of Heteropoly Complexes of three Glycine Bis-11 Tungstosilicate Double Lanthanide Element [J]", "ArnetMiner: Extraction and Mining of an Academic Researcher Social Network", "An improved weighted network model and its cluster analysis", "\u57fa\u4e8e\u9a7e\u9a76\u6027\u80fd\u4f18\u5316\u7684\u6df7\u5408\u52a8\u529b\u8f66\u8f86\u52a8\u6001\u63a7\u5236\u7b56\u7565\u7814\u7a76", "Characteristics of Mafikeng Iron Deposit in Southwestern Fujian Province, Implications for the Skarn Deposit of Magmatic Origin", "Severe mitral valve stenosis with left atrial thrombus in the puerperium: to treat or to observe?", "Pricing Mechanism of Nash Bargaining Fairness Concerns in the Closed-loop Supply Chain", "HMG Advance Access published April 1, 2013", "Genome-wide association studies identify several new loci for human pigmentation traits", "Corrigendum to \u201cExonuclease 1 (EXO1) gene variation and melanoma risk\u201d 11 (2012) 304\u2013309", "Protective effects and mechanisms of ulilnastatin against renal injury in rats with diabetic nephropathy", "ASSOCIATION STUDIES ARTICLES", "Price Coordination of Closed-Loop Supply Chain Involving Third-Party Recycling", "Renal protective effects of licorice extracts in diabetic rats", "3D surface reconstruction using the shape based interpolation guided by maximal discs", "The growth and spectral characteristics of BaWO", "The differential price coordination of the closed-loop supply chain under asymmetric information", "Research on theory of reconfigurable for NC machine tool", "U and its measurement with accelerator mass spectrometry", "Rhododendron Zhangjiajieense, a new species of the Rhododendron from Hunan, China", "\u00b2 Markov\u00a2\u00a4\u00ab\u00a9\u00a4 \u00c61)\u00bf \u00bd \u00be\u00bc", "A study of heteropoly complexes of rare earths as catalyst promoter in the synthesis of ethyl acetate", "Analysis of statistical fluctuation in measurements of low intensity pulse rays", "CDMA \u7cfb\u7edf\u4e2d\u5207\u6362\u6027\u80fd\u7684\u754c\u9650\u548c\u53d8\u52a8\u8303\u56f4", "THE APPROACH AND APPLICATION OF FAST AND ACCURATE NUMERICAL SIMULATION ON 3D WET STEAM FLOW", "PAPER NO: 328 FIELD OBSERVATION OF THREE DIMENSIONAL CHANGES OF ARTFICIAL BEACH AND APPLICATION OF EXTENDED HSU MODEL-THE EXAMPLE OF KEMIGAWA BEACH IN CHIBA PREFECTURE, JAPAN", "Chemical compatibility of B", "Chemical compatibility of B-4C/Na/SS system. Pt. 2: Effects of test period and oxygen content in sodium", "A miniature shaping amplifier and gate integrator", "DAMPING CAPACITY OF MAGNESIUM REINFORCED BY HYBRID SiCp AND Al_2SiO_ (5f)", "APPLICATION OF THE CL EQUATION TO THE SUPERPLASTIC FLOW PROCESS IN T12 STEEL", "EQUILIBRIUM SWELLING AND MUTUAL ENTANGLEMENTS IN POLY (VINYL ACETATE)/POLY (METHYL ACRYLATE) IPNS", "A study of mass transfer behaviors in the austenitic stainless steels exposed to sodium at high temperature", "Supplemental Information", "In this paper, the circle segments (CS) technique is proposed as a data visualization tool for selecting and analysing the effects of the input features towards the target\u00a0\u2026", "Diabetes in the Latino Population of the United States", "Department of Computer Science and Technology, Tsinghua University {tangjie, zhangduo, ylm}@ keg. cs. tsinghua. edu. cn"], "ids": ["b72042d2-4458-4e9f-916e-a589d597129c", "7073790d-6b23-40b0-8922-41a6095f64a7", "759cdbb7-6549-4e70-a7ef-126d91f30b8d", "a01235f9-e161-4013-bfe5-2606e56eb519", "1d0dc2d6-c481-429e-b255-e54a2014d1df", "4025f3ba-efbf-4673-a793-d5b7e852a17d", "f0e15bec-8925-4bad-b47f-1b1ec5e3d0f3", "782fa58a-0838-42b6-abaf-051693d6ed37", "bfb613d0-6319-4050-ac24-2d031c866942", "33a871f0-9f1f-44db-bc9b-a5d4a41a6b64", "2472aff7-0846-4f1d-8905-30a1b0d9b635", "8bdbe9c2-8290-40d9-891c-9a0ff3b7d2b0", "ef034355-dd92-480a-966b-5bf974d97d4a", "04d3134b-8d0f-4602-bde5-b2aa32b37f17", "1b712cdd-489a-46c4-9660-a92205fcf9c3", "25398a5b-b392-431b-92aa-7a8780705c3d", "c785a933-fbbd-4d05-ae9e-ec296cecc872", "8f10f388-107a-43f5-a1bb-147475e7ba8b", "54f993c6-003f-46cd-bb33-5855b40ad9cb", "2c2b8fff-58db-40b3-84ee-868ba093b0ed", "870b8e7c-73c2-4c6b-90a8-20405a054383", "99dd6721-c1f0-423f-88c1-19561095dc71", "c82cf427-756c-4d9a-bc36-0138ea2b8125", "450e498d-3115-4b4d-881b-1d90cba112b9", "13945c88-8f18-4613-96e4-9cff288f344e", "d4ff0d78-7afa-4bd8-ad79-c70c6bc37e24", "c76649b2-9352-4089-8857-74b5228e7ba4", "99d4d2eb-9151-4614-ae67-2045369c8307", "62fe4e44-6e5f-4086-a9e4-4807bb60cad1", "9f70b3a3-6061-4c9d-83cc-a63873ee8860", "38cae7cf-3b76-4cf6-a2a0-61b235ceec02", "ac73f557-0075-4f1a-9f81-b22885388402", "b4dd14ac-a412-4473-ae4d-7789ca8dac84", "552ebcda-ef69-4faf-8871-4a14805cadea", "7ba5239e-59a8-475a-81cd-e5fc835c3afa", "cf61fdaf-ab0a-46e2-b57b-0d37b06605a1", "3c63478e-5f09-4bee-abff-f74cc18b7d70", "2c42cd30-66d1-408a-967e-6d6fe6c57362", "f13d6b4f-b216-4b0a-96f4-631429e2cfbf", "3afefd3b-acc0-4429-967b-f2eafd489926", "45905770-e513-47b8-ad75-5a99aaf2c250", "bb9341f7-ecd5-49d2-8be5-599560e45651", "c297c53e-08c3-4859-b24f-5bb1438bee32", "fcdeabf4-23f7-4eb5-a114-11003b7fced6", "6992f459-58fe-41f7-9cb5-941c471cc4df", "90c4d6bc-a343-4265-97fa-5d640971f3c6", "d44ba53b-f477-4206-bc31-0d7e803cb802", "0a59969c-02cf-41af-93ef-d9ab5d96c55f", "53ab340b-df93-4df0-8144-424ece10aafb", "11ba8208-3ebe-4d38-aecd-7078623801c1", "e19ecda5-2641-42ed-a079-9d9a64b114ae", "eeaa9166-2c7a-433b-95b9-26d4130c0247", "92177d66-c9f7-4b74-9fd8-5e1c25349926", "668e9448-5e6f-48a7-8800-e9969da8cefe", "432a11ca-7434-4b44-8f97-30534a67549b", "7eca4a7c-11dc-4b1f-b324-b90893b53f43", "baadadf1-4a25-4e35-b442-9999f6627890", "d9a08c4c-3d7b-4d9e-b912-06bf7c6c9e08", "9642e014-7a8b-4f2e-a177-ca4f3c99cb57"]}